<?xml version="1.0" encoding="UTF-8"?>

<!-- generated on 2023-08-30 17:02:13 by Eclipse SUMO netedit Version 1.17.0
<configuration xmlns:xsi="http://www.w3.org/2001/XMLSchema-instance" xsi:noNamespaceSchemaLocation="http://sumo.dlr.de/xsd/netconvertConfiguration.xsd">

    <input>
        <sumocfg-file value="C:\Projects\Bachelorarbeit\MyFirstSumo\hello\test.sumocfg"/>
        <additional-files value="C:\Projects\Bachelorarbeit\MyFirstSumo\hello\test.add.xml"/>
        <route-files value="C:\Projects\Bachelorarbeit\MyFirstSumo\hello\test.rou.xml"/>
        <sumo-net-file value="C:\Projects\Bachelorarbeit\MyFirstSumo\hello\test.net.xml"/>
    </input>

    <output>
        <output-file value="C:\Projects\Bachelorarbeit\MyFirstSumo\hello\test.net.xml"/>
    </output>

    <processing>
        <offset.disable-normalization value="true"/>
    </processing>

    <junctions>
        <no-turnarounds value="true"/>
    </junctions>

    <netedit>
        <new-network value="false"/>
    </netedit>

</configuration>
-->

<net version="1.16" junctionCornerDetail="5" limitTurnSpeed="5.50" xmlns:xsi="http://www.w3.org/2001/XMLSchema-instance" xsi:noNamespaceSchemaLocation="http://sumo.dlr.de/xsd/net_file.xsd">

    <location netOffset="0.00,0.00" convBoundary="-100.00,-100.10,100.00,100.00" origBoundary="10000000000.00,10000000000.00,-10000000000.00,-10000000000.00" projParameter="!"/>

    <edge id=":J1_0" function="internal">
        <lane id=":J1_0_0" index="0" speed="7.26" length="11.78" shape="-1.37,92.65 -0.89,95.16 0.71,96.96 3.44,98.04 7.30,98.40"/>
    </edge>
    <edge id=":J19_0" function="internal">
        <lane id=":J19_0_0" index="0" speed="3.90" length="2.58" shape="-96.80,-98.40 -97.50,-98.30 -98.00,-98.00 -98.30,-97.50 -98.40,-96.80"/>
    </edge>
    <edge id=":J2_0" function="internal">
        <lane id=":J2_0_0" index="0" speed="3.90" length="2.58" shape="96.80,98.40 97.50,98.30 98.00,98.00 98.30,97.50 98.40,96.80"/>
    </edge>
    <edge id=":J20_0" function="internal">
        <lane id=":J20_0_0" index="0" speed="3.90" length="2.58" shape="-98.40,-3.20 -98.30,-2.50 -98.00,-2.00 -97.50,-1.70 -96.80,-1.60"/>
    </edge>
    <edge id=":J3_0" function="internal">
        <lane id=":J3_0_0" index="0" speed="3.90" length="2.58" shape="98.40,3.20 98.30,2.50 98.00,2.00 97.50,1.70 96.80,1.60"/>
    </edge>
    <edge id=":J4_0" function="internal">
        <lane id=":J4_0_0" index="0" speed="6.58" length="9.03" shape="10.30,1.51 7.86,1.85 6.09,2.89 5.00,4.63 4.57,7.05"/>
    </edge>
    <edge id=":J4_1" function="internal">
        <lane id=":J4_1_0" index="0" speed="8.64" length="16.69" shape="10.30,1.51 5.09,0.96 1.38,-0.67 -0.85,-3.39 -1.60,-7.20"/>
    </edge>
    <edge id=":J4_2" function="internal">
        <lane id=":J4_2_0" index="0" speed="13.89" length="14.40" shape="1.60,-7.20 2.10,-3.89 3.17,-0.93 4.20,2.46 4.57,7.05"/>
        <lane id=":J4_2_1" index="1" speed="13.89" length="14.40" shape="1.60,-7.20 1.37,6.95"/>
    </edge>
    <edge id=":J4_4" function="internal">
        <lane id=":J4_4_0" index="0" speed="6.51" length="9.03" shape="-10.40,-1.60 -7.95,-1.95 -6.20,-3.00 -5.15,-4.75 -4.80,-7.20"/>
    </edge>
    <edge id=":J4_5" function="internal">
        <lane id=":J4_5_0" index="0" speed="8.50" length="16.56" shape="-10.40,-1.60 -5.15,-1.07 -1.43,0.54 0.74,3.21 1.37,6.95"/>
    </edge>
    <edge id=":J5_0" function="internal">
        <lane id=":J5_0_0" index="0" speed="6.51" length="9.03" shape="-4.80,-92.80 -5.15,-95.25 -6.20,-97.00 -7.95,-98.05 -10.40,-98.40"/>
    </edge>
    <edge id=":J5_1" function="internal">
        <lane id=":J5_1_0" index="0" speed="8.00" length="14.19" shape="-1.60,-92.80 -1.05,-96.65 0.60,-99.40 3.35,-101.05 7.20,-101.60"/>
    </edge>

    <edge id="-E4b" from="J5" to="J4" priority="-1">
        <lane id="-E4b_0" index="0" speed="13.89" length="85.60" shape="1.60,-92.80 1.60,-7.20"/>
    </edge>
    <edge id="E1" from="J1" to="J2" priority="-1">
        <lane id="E1_0" index="0" speed="13.89" length="89.50" shape="7.30,98.40 96.80,98.40"/>
    </edge>
    <edge id="E15" from="J5" to="J19" priority="-1">
        <lane id="E15_0" index="0" speed="13.89" length="86.40" shape="-10.40,-98.40 -96.80,-98.40"/>
    </edge>
    <edge id="E16" from="J19" to="J20" priority="-1">
        <lane id="E16_0" index="0" speed="13.89" length="93.60" shape="-98.40,-96.80 -98.40,-3.20"/>
    </edge>
    <edge id="E17" from="J20" to="J4" priority="-1">
        <lane id="E17_0" index="0" speed="13.89" length="86.40" shape="-96.80,-1.60 -10.40,-1.60"/>
    </edge>
    <edge id="E2" from="J2" to="J3" priority="-1">
        <lane id="E2_0" index="0" speed="13.89" length="93.60" shape="98.40,96.80 98.40,3.20"/>
    </edge>
    <edge id="E3" from="J3" to="J4" priority="-1" shape="100.00,0.00 -0.10,-0.10">
        <lane id="E3_0" index="0" speed="13.89" length="86.50" shape="96.80,1.60 10.30,1.51"/>
    </edge>
    <edge id="E4a" from="J4" to="J1" priority="-1" spreadType="center" shape="3.20,-0.10 0.00,100.00">
        <lane id="E4a_0" index="0" speed="13.89" length="85.74" shape="4.57,7.05 1.83,92.75"/>
        <lane id="E4a_1" index="1" speed="13.89" length="85.74" shape="1.37,6.95 -1.37,92.65"/>
    </edge>
    <edge id="E4b" from="J4" to="J5" priority="-1" spreadType="center" shape="-3.20,-0.10 -3.20,-100.10">
        <lane id="E4b_0" index="0" speed="13.89" length="85.60" shape="-4.80,-7.20 -4.80,-92.80"/>
        <lane id="E4b_1" index="1" speed="13.89" length="85.60" shape="-1.60,-7.20 -1.60,-92.80"/>
        <param key="isBidi" value="true"/>
    </edge>
    <edge id="E5" from="J5" to="J6" priority="-1">
        <lane id="E5_0" index="0" speed="13.89" length="92.80" shape="7.20,-101.60 100.00,-101.60"/>
    </edge>

    <junction id="J1" type="priority" x="0.00" y="100.00" incLanes="E4a_0 E4a_1" intLanes=":J1_0_0" shape="7.30,100.00 7.30,96.80 5.10,96.36 4.34,95.80 3.81,95.02 3.50,94.02 3.43,92.80 -2.97,92.60 -2.75,94.86 -1.93,96.71 -0.52,98.15 1.49,99.18 4.10,99.79">
        <request index="0" response="0" foes="0" cont="0"/>
    </junction>
    <junction id="J19" type="priority" x="-100.00" y="-100.00" incLanes="E15_0" intLanes=":J19_0_0" shape="-100.00,-96.80 -96.80,-96.80 -96.80,-100.00 -98.58,-99.64 -99.20,-99.20 -99.64,-98.58 -99.91,-97.78">
        <request index="0" response="0" foes="0" cont="0"/>
    </junction>
    <junction id="J2" type="priority" x="100.00" y="100.00" incLanes="E1_0" intLanes=":J2_0_0" shape="100.00,96.80 96.80,96.80 96.80,100.00 98.58,99.64 99.20,99.20 99.64,98.58 99.91,97.78">
        <request index="0" response="0" foes="0" cont="0"/>
    </junction>
    <junction id="J20" type="priority" x="-100.00" y="0.00" incLanes="E16_0" intLanes=":J20_0_0" shape="-96.80,0.00 -96.80,-3.20 -100.00,-3.20 -99.64,-1.42 -99.20,-0.80 -98.58,-0.36 -97.78,-0.09">
        <request index="0" response="0" foes="0" cont="0"/>
    </junction>
    <junction id="J3" type="priority" x="100.00" y="0.00" incLanes="E2_0" intLanes=":J3_0_0" shape="96.80,3.20 100.00,3.20 99.64,1.42 99.20,0.80 98.58,0.35 97.78,0.09 96.80,-0.00">
        <request index="0" response="0" foes="0" cont="0"/>
    </junction>
    <junction id="J4" type="priority" x="0.00" y="0.00" incLanes="E3_0 -E4b_0 E17_0" intLanes=":J4_0_0 :J4_1_0 :J4_2_0 :J4_2_1 :J4_4_0 :J4_5_0" shape="10.30,3.11 10.30,-0.09 8.13,-0.29 6.36,-0.88 4.98,-1.87 3.99,-3.25 3.40,-5.03 3.20,-7.20 -6.40,-7.20 -6.84,-4.98 -7.40,-4.20 -8.18,-3.64 -9.18,-3.31 -10.40,-3.20 -10.40,0.00 -7.23,0.19 -4.65,0.77 -2.66,1.72 -1.26,3.07 -0.45,4.79 -0.23,6.90 6.17,7.10 6.69,4.88 7.27,4.11 8.06,3.55 9.07,3.22">
        <request index="0" response="000000" foes="001100" cont="0"/>
        <request index="1" response="000000" foes="001100" cont="0"/>
        <request index="2" response="100011" foes="100011" cont="0"/>
        <request index="3" response="100011" foes="100011" cont="0"/>
        <request index="4" response="000000" foes="000000" cont="0"/>
        <request index="5" response="000000" foes="001100" cont="0"/>
    </junction>
    <junction id="J5" type="priority" x="0.00" y="-100.00" incLanes="E4b_0 E4b_1" intLanes=":J5_0_0 :J5_1_0" shape="-6.40,-92.80 3.20,-92.80 3.31,-95.00 3.64,-96.80 4.20,-98.20 4.98,-99.20 5.98,-99.80 7.20,-100.00 7.20,-103.20 3.41,-102.96 0.65,-102.37 -3.85,-100.83 -6.61,-100.24 -10.40,-100.00 -10.40,-96.80 -8.18,-96.36 -7.40,-95.80 -6.84,-95.02 -6.51,-94.02">
        <request index="0" response="00" foes="00" cont="0"/>
        <request index="1" response="00" foes="00" cont="0"/>
    </junction>
    <junction id="J6" type="dead_end" x="100.00" y="-100.00" incLanes="E5_0" intLanes="" shape="100.00,-103.20 100.00,-100.00"/>

    <connection from="-E4b" to="E4a" fromLane="0" toLane="0" via=":J4_2_0" dir="s" state="m"/>
    <connection from="-E4b" to="E4a" fromLane="0" toLane="1" via=":J4_2_1" dir="s" state="m"/>
    <connection from="E1" to="E2" fromLane="0" toLane="0" via=":J2_0_0" dir="r" state="M"/>
    <connection from="E15" to="E16" fromLane="0" toLane="0" via=":J19_0_0" dir="r" state="M"/>
    <connection from="E16" to="E17" fromLane="0" toLane="0" via=":J20_0_0" dir="r" state="M"/>
    <connection from="E17" to="E4b" fromLane="0" toLane="0" via=":J4_4_0" dir="r" state="M"/>
    <connection from="E17" to="E4a" fromLane="0" toLane="1" via=":J4_5_0" dir="l" state="M"/>
    <connection from="E2" to="E3" fromLane="0" toLane="0" via=":J3_0_0" dir="r" state="M"/>
    <connection from="E3" to="E4a" fromLane="0" toLane="0" via=":J4_0_0" dir="r" state="M"/>
    <connection from="E3" to="E4b" fromLane="0" toLane="1" via=":J4_1_0" dir="l" state="M"/>
    <connection from="E4a" to="E1" fromLane="1" toLane="0" via=":J1_0_0" dir="r" state="M"/>
    <connection from="E4b" to="E15" fromLane="0" toLane="0" via=":J5_0_0" dir="r" state="M"/>
    <connection from="E4b" to="E5" fromLane="1" toLane="0" via=":J5_1_0" dir="l" state="M"/>

    <connection from=":J1_0" to="E1" fromLane="0" toLane="0" dir="r" state="M"/>
    <connection from=":J19_0" to="E16" fromLane="0" toLane="0" dir="r" state="M"/>
    <connection from=":J2_0" to="E2" fromLane="0" toLane="0" dir="r" state="M"/>
    <connection from=":J20_0" to="E17" fromLane="0" toLane="0" dir="r" state="M"/>
    <connection from=":J3_0" to="E3" fromLane="0" toLane="0" dir="r" state="M"/>
    <connection from=":J4_0" to="E4a" fromLane="0" toLane="0" dir="r" state="M"/>
    <connection from=":J4_1" to="E4b" fromLane="0" toLane="1" dir="l" state="M"/>
    <connection from=":J4_2" to="E4a" fromLane="0" toLane="0" dir="s" state="M"/>
    <connection from=":J4_2" to="E4a" fromLane="1" toLane="1" dir="s" state="M"/>
    <connection from=":J4_4" to="E4b" fromLane="0" toLane="0" dir="r" state="M"/>
    <connection from=":J4_5" to="E4a" fromLane="0" toLane="1" dir="l" state="M"/>
    <connection from=":J5_0" to="E15" fromLane="0" toLane="0" dir="r" state="M"/>
    <connection from=":J5_1" to="E5" fromLane="0" toLane="0" dir="l" state="M"/>

</net>
